Circuit: * C:\Users\iamar\Documents\INSA\4A\S2\MOSH\KiCad\2024-2025-4GP-Maelys-chr-Buhahahhahah\ltspice\ampli transimpedance capteur.asc

Direct Newton iteration for .op point succeeded.

Date: Fri Mar 28 12:31:55 2025
Total elapsed time: 0.290 seconds.

tnom = 27
temp = 27
method = modified trap
totiter = 2108
traniter = 2088
tranpoints = 1045
accept = 1045
rejected = 0
matrix size = 14
fillins = 5
solver = Normal
Avg thread counts: 2.9/4.8/4.8/2.9
Matrix Compiler1: 664 bytes object code size  0.6/0.4/[0.3]
Matrix Compiler2: 1.18 KB object code size  0.4/0.6/[0.3]

