Circuit: * C:\Users\iamar\Documents\INSA\4A\S2\MOSH\KiCad\2024-2025-4GP-Maelys-chr-Buhahahhahah\ltspice\ampli transimpedance.asc

Direct Newton iteration for .op point succeeded.

Date: Tue Apr  1 13:45:57 2025
Total elapsed time: 0.468 seconds.

tnom = 27
temp = 27
method = modified trap
totiter = 46603
traniter = 46581
tranpoints = 13518
accept = 10298
rejected = 3220
matrix size = 11
fillins = 7
solver = Normal
Avg thread counts: 1.1/1.3/1.3/1.1
Matrix Compiler1: 644 bytes object code size  0.6/0.4/[0.4]
Matrix Compiler2: 1.01 KB object code size  0.4/0.6/[0.3]

