Circuit: * U:\Documents\TP capteur\ltspice\ampli transimpedance capteur.asc

Direct Newton iteration for .op point succeeded.

Date: Fri Jan 31 08:13:06 2025
Total elapsed time: 0.251 seconds.

tnom = 27
temp = 27
method = modified trap
totiter = 20728
traniter = 20706
tranpoints = 10354
accept = 6667
rejected = 3687
matrix size = 16
fillins = 5
solver = Normal
Avg thread counts: 1.1/1.1/1.1/1.1
Matrix Compiler1: 728 bytes object code size  0.2/0.3/[0.2]
Matrix Compiler2: off  [0.2]/0.9/0.2

